Version 4
SHEET 1 888 680
WIRE 224 -160 -16 -160
WIRE 144 -80 96 -80
WIRE 224 -80 224 -160
WIRE 224 -80 144 -80
WIRE 480 -80 224 -80
WIRE 144 -48 144 -80
WIRE 144 48 144 32
WIRE 288 48 144 48
WIRE 352 48 288 48
WIRE 608 48 352 48
WIRE 528 64 416 64
WIRE 224 80 224 -80
WIRE 288 80 288 48
WIRE 352 80 352 48
WIRE 416 80 416 64
WIRE -16 112 -16 -160
WIRE 528 160 528 64
WIRE 608 160 608 48
WIRE -16 224 -16 192
WIRE 96 288 96 -80
WIRE 352 336 352 304
WIRE 416 336 416 304
WIRE 480 336 480 -80
WIRE 480 336 416 336
WIRE 96 384 96 368
WIRE 288 384 288 304
WIRE 288 384 96 384
WIRE 224 400 224 304
WIRE 528 400 528 224
WIRE 528 400 224 400
WIRE 608 400 608 224
WIRE 608 400 528 400
WIRE 48 416 -16 416
WIRE 96 416 96 384
WIRE 224 416 224 400
WIRE 48 432 48 416
WIRE 16 496 -16 496
WIRE 48 496 48 480
WIRE 48 496 16 496
WIRE 16 512 16 496
WIRE 96 512 96 496
WIRE 96 512 16 512
WIRE 96 528 96 512
FLAG 224 416 0
FLAG 96 528 0
FLAG -16 224 0
FLAG 352 336 Vout
SYMBOL Misc\\NE555 320 192 R270
SYMATTR InstName U2
SYMBOL res 80 272 R0
SYMATTR InstName R1
SYMATTR Value 12k
SYMBOL res 128 -64 R0
SYMATTR InstName R2
SYMATTR Value 12k
SYMBOL cap 592 160 R0
SYMATTR InstName C1
SYMATTR Value 150µ
SYMBOL cap 512 160 R0
SYMATTR InstName C2
SYMATTR Value 1n
SYMBOL sw 96 512 M180
SYMATTR InstName S1
SYMATTR Value MYSW
SYMBOL voltage -16 400 R0
WINDOW 0 -111 66 Left 2
WINDOW 3 -475 28 Left 2
WINDOW 123 0 0 Left 0
WINDOW 39 0 0 Left 0
SYMATTR InstName V1
SYMATTR Value PULSE(0 10 100m 0 0 200m 100 1)
SYMBOL voltage -16 96 R0
WINDOW 123 0 0 Left 0
WINDOW 39 0 0 Left 0
SYMATTR InstName V2
SYMATTR Value 10
TEXT 448 552 Left 2 !.tran 0 5 0 10u
TEXT 136 464 Left 2 !.model MYSW SW(Ron=1 Roff=1Meg Vt=.5 Vh=-.4)
