Version 4
SHEET 1 1884 680
WIRE 432 -208 -144 -208
WIRE 592 -208 432 -208
WIRE 1552 -208 976 -208
WIRE 1712 -208 1552 -208
WIRE 480 -128 112 -128
WIRE 1600 -128 1232 -128
WIRE 592 -112 592 -208
WIRE 1712 -112 1712 -208
WIRE -144 -80 -144 -208
WIRE 976 -80 976 -208
WIRE -448 -48 -496 -48
WIRE 176 -48 -32 -48
WIRE 432 -48 432 -208
WIRE 432 -48 400 -48
WIRE 1296 -48 1088 -48
WIRE 1552 -48 1552 -208
WIRE 1552 -48 1520 -48
WIRE 592 0 592 -32
WIRE 592 0 512 0
WIRE 720 0 592 0
WIRE 1712 0 1712 -32
WIRE 1712 0 1632 0
WIRE 1840 0 1712 0
WIRE 112 16 112 -128
WIRE 176 16 112 16
WIRE 512 16 512 0
WIRE 512 16 400 16
WIRE 1232 16 1232 -128
WIRE 1296 16 1232 16
WIRE 1632 16 1632 0
WIRE 1632 16 1520 16
WIRE -144 64 -144 0
WIRE 976 64 976 0
WIRE -448 80 -448 -48
WIRE -448 80 -464 80
WIRE 48 80 16 80
WIRE 176 80 48 80
WIRE 480 80 480 -128
WIRE 480 80 400 80
WIRE 592 80 480 80
WIRE 720 80 720 64
WIRE 720 80 592 80
WIRE 1168 80 1136 80
WIRE 1296 80 1168 80
WIRE 1600 80 1600 -128
WIRE 1600 80 1520 80
WIRE 1712 80 1600 80
WIRE 1840 80 1840 64
WIRE 1840 80 1712 80
WIRE -464 112 -464 80
WIRE 48 112 48 80
WIRE 592 112 592 80
WIRE 1168 112 1168 80
WIRE 1712 112 1712 80
WIRE 176 144 112 144
WIRE 480 144 400 144
WIRE 1296 144 1232 144
WIRE 1600 144 1520 144
WIRE -496 160 -672 160
WIRE 480 208 480 144
WIRE 1600 208 1600 144
WIRE -464 224 -464 176
WIRE 592 224 592 176
WIRE 1712 224 1712 176
WIRE -32 256 -32 -48
WIRE 1088 256 1088 -48
WIRE -672 272 -672 160
WIRE 480 320 480 272
WIRE 1600 320 1600 272
FLAG -32 256 0
FLAG -144 64 0
FLAG 480 320 0
FLAG 592 224 0
FLAG -672 352 0
FLAG -464 304 0
FLAG -496 32 0
FLAG -496 128 0
FLAG 48 256 0
FLAG 1088 256 0
FLAG 976 64 0
FLAG 1600 320 0
FLAG 1712 224 0
FLAG 1168 256 0
SYMBOL Misc\\NE555 288 48 R0
SYMATTR InstName U1
SYMBOL voltage -144 -96 R0
WINDOW 123 0 0 Left 0
WINDOW 39 0 0 Left 0
SYMATTR InstName Va
SYMATTR Value ""
SYMBOL cap 464 208 R0
SYMATTR InstName C1
SYMATTR Value ""
SYMBOL res 576 -16 R0
SYMATTR InstName R2
SYMATTR Value ""
SYMBOL res 576 -128 R0
SYMATTR InstName R1
SYMATTR Value ""
SYMBOL cap 576 112 R0
SYMATTR InstName C2
SYMATTR Value ""
SYMBOL diode 704 0 R0
SYMATTR InstName D1
SYMBOL voltage -672 256 R0
WINDOW 123 0 0 Left 0
WINDOW 39 0 0 Left 0
SYMATTR InstName Vctrl
SYMATTR Value -10
SYMBOL voltage -496 -64 R0
WINDOW 123 0 0 Left 0
WINDOW 39 0 0 Left 0
SYMATTR InstName Vdd
SYMATTR Value 10
SYMBOL voltage -464 208 R0
WINDOW 123 0 0 Left 0
WINDOW 39 0 0 Left 0
SYMATTR InstName Vss
SYMATTR Value -10
SYMBOL OpAmps\\UniversalOpAmp2 -464 144 R0
SYMATTR InstName U3
SYMBOL res 32 96 R0
SYMATTR InstName R3
SYMBOL LED 32 192 R0
SYMATTR InstName D2
SYMBOL Misc\\NE555 1408 48 R0
SYMATTR InstName U2
SYMBOL voltage 976 -96 R0
WINDOW 123 0 0 Left 0
WINDOW 39 0 0 Left 0
SYMATTR InstName Va
SYMATTR Value 10
SYMBOL cap 1584 208 R0
SYMATTR InstName C1
SYMATTR Value 0.01µ
SYMBOL res 1696 -16 R0
SYMATTR InstName R2
SYMATTR Value 7.5k
SYMBOL res 1696 -128 R0
SYMATTR InstName R1
SYMATTR Value 15k
SYMBOL cap 1696 112 R0
SYMATTR InstName C2
SYMATTR Value 200µ
SYMBOL diode 1824 0 R0
SYMATTR InstName D1
SYMBOL res 1152 96 R0
SYMATTR InstName R3
SYMATTR Value 1k
SYMBOL LED 1152 192 R0
SYMATTR InstName D2
TEXT 56 -312 Left 2 ;no dim
TEXT 1064 -336 Left 2 ;dim
