Version 4
SHEET 1 880 680
WIRE 432 -208 -144 -208
WIRE 592 -208 432 -208
WIRE 480 -128 112 -128
WIRE 592 -112 592 -208
WIRE -144 -80 -144 -208
WIRE 176 -48 -32 -48
WIRE 432 -48 432 -208
WIRE 432 -48 400 -48
WIRE 592 0 592 -32
WIRE 592 0 512 0
WIRE 720 0 592 0
WIRE -784 16 -800 16
WIRE -672 16 -704 16
WIRE -528 16 -672 16
WIRE 112 16 112 -128
WIRE 176 16 112 16
WIRE 512 16 512 0
WIRE 512 16 400 16
WIRE -672 48 -672 16
WIRE -144 64 -144 0
WIRE 176 80 16 80
WIRE 480 80 480 -128
WIRE 480 80 400 80
WIRE 592 80 480 80
WIRE 720 80 720 64
WIRE 720 80 592 80
WIRE -800 96 -800 16
WIRE -800 96 -896 96
WIRE 592 112 592 80
WIRE -528 128 -528 16
WIRE -496 128 -528 128
WIRE 176 144 -432 144
WIRE 480 144 400 144
WIRE -496 160 -528 160
WIRE -896 192 -896 96
WIRE -800 192 -800 96
WIRE -784 192 -800 192
WIRE -672 192 -704 192
WIRE -528 192 -528 160
WIRE -528 192 -672 192
WIRE 480 208 480 144
WIRE -672 224 -672 192
WIRE 592 224 592 176
WIRE -32 256 -32 -48
WIRE -896 320 -896 272
WIRE 480 320 480 272
FLAG -32 256 0
FLAG -144 64 0
FLAG 480 320 0
FLAG 592 224 0
FLAG -464 32 0
FLAG -464 256 0
FLAG -672 128 0
FLAG -672 304 0
FLAG -896 320 0
SYMBOL Misc\\NE555 288 48 R0
SYMATTR InstName U1
SYMBOL voltage -144 -96 R0
WINDOW 123 0 0 Left 0
WINDOW 39 0 0 Left 0
SYMATTR InstName Va
SYMATTR Value 10
SYMBOL cap 464 208 R0
SYMATTR InstName C1
SYMATTR Value 0.01µ
SYMBOL res 576 -16 R0
SYMATTR InstName R2
SYMATTR Value 7.5k
SYMBOL res 576 -128 R0
SYMATTR InstName R1
SYMATTR Value 15k
SYMBOL cap 576 112 R0
SYMATTR InstName C2
SYMATTR Value 200µ
SYMBOL diode 704 0 R0
SYMATTR InstName D1
SYMBOL OpAmps\\UniversalOpAmp2 -464 144 M180
SYMATTR InstName U2
SYMBOL voltage -464 160 R0
WINDOW 123 0 0 Left 0
WINDOW 39 0 0 Left 0
SYMATTR InstName V1
SYMATTR Value 10
SYMBOL voltage -464 128 R180
WINDOW 0 24 96 Left 2
WINDOW 3 24 16 Left 2
WINDOW 123 0 0 Left 0
WINDOW 39 0 0 Left 0
SYMATTR InstName V2
SYMATTR Value -10
SYMBOL res -688 32 R0
SYMATTR InstName R3
SYMATTR Value 1k
SYMBOL res -688 0 R90
WINDOW 0 0 56 VBottom 2
WINDOW 3 32 56 VTop 2
SYMATTR InstName R4
SYMATTR Value 500k
SYMBOL res -688 208 R0
SYMATTR InstName R5
SYMATTR Value 1k
SYMBOL res -688 176 R90
WINDOW 0 0 56 VBottom 2
WINDOW 3 32 56 VTop 2
SYMATTR InstName R6
SYMATTR Value 1k
SYMBOL voltage -896 176 R0
WINDOW 123 0 0 Left 0
WINDOW 39 0 0 Left 0
SYMATTR InstName V3
SYMATTR Value 10
TEXT -176 344 Left 2 !.tran 0 10 0 1m
