Version 4
SHEET 1 880 680
WIRE 432 -208 -144 -208
WIRE 592 -208 432 -208
WIRE 480 -128 112 -128
WIRE 592 -112 592 -208
WIRE -144 -80 -144 -208
WIRE -448 -48 -496 -48
WIRE 176 -48 -32 -48
WIRE 432 -48 432 -208
WIRE 432 -48 400 -48
WIRE 592 0 592 -32
WIRE 592 0 512 0
WIRE 720 0 592 0
WIRE 112 16 112 -128
WIRE 176 16 112 16
WIRE 512 16 512 0
WIRE 512 16 400 16
WIRE -144 64 -144 0
WIRE -448 80 -448 -48
WIRE -448 80 -464 80
WIRE 80 80 16 80
WIRE 176 80 80 80
WIRE 480 80 480 -128
WIRE 480 80 400 80
WIRE 592 80 480 80
WIRE 720 80 720 64
WIRE 720 80 592 80
WIRE -464 112 -464 80
WIRE 592 112 592 80
WIRE 176 144 -432 144
WIRE 480 144 400 144
WIRE -496 160 -672 160
WIRE 480 208 480 144
WIRE -464 224 -464 176
WIRE 592 224 592 176
WIRE -32 256 -32 -48
WIRE -672 272 -672 160
WIRE 480 320 480 272
FLAG -32 256 0
FLAG -144 64 0
FLAG 480 320 0
FLAG 592 224 0
FLAG -672 352 0
FLAG -464 304 0
FLAG -496 32 0
FLAG -496 128 0
FLAG 80 224 0
SYMBOL Misc\\NE555 288 48 R0
SYMATTR InstName U1
SYMBOL voltage -144 -96 R0
WINDOW 123 0 0 Left 0
WINDOW 39 0 0 Left 0
SYMATTR InstName Va
SYMATTR Value 9
SYMBOL cap 464 208 R0
SYMATTR InstName C1
SYMATTR Value 0.01µ
SYMBOL res 576 -16 R0
SYMATTR InstName R2
SYMATTR Value 7.5k
SYMBOL res 576 -128 R0
SYMATTR InstName R1
SYMATTR Value 15k
SYMBOL cap 576 112 R0
SYMATTR InstName C2
SYMATTR Value 200µ
SYMBOL diode 704 0 R0
SYMATTR InstName D1
SYMBOL voltage -672 256 R0
WINDOW 123 0 0 Left 0
WINDOW 39 0 0 Left 0
SYMATTR InstName Vctrl
SYMATTR Value -9
SYMBOL voltage -496 -64 R0
WINDOW 123 0 0 Left 0
WINDOW 39 0 0 Left 0
SYMATTR InstName Vdd
SYMATTR Value 9
SYMBOL voltage -464 208 R0
WINDOW 123 0 0 Left 0
WINDOW 39 0 0 Left 0
SYMATTR InstName Vss
SYMATTR Value 0
SYMBOL OpAmps\\UniversalOpAmp2 -464 144 R0
SYMATTR InstName U3
SYMBOL res 64 64 R0
SYMATTR InstName R3
SYMATTR Value 500
SYMBOL LED 64 160 R0
SYMATTR InstName D2
SYMATTR Value led
TEXT -176 344 Left 2 !.tran 0 10 0 1m
TEXT -176 376 Left 2 !.model led D(Ron=1 Roff=1Meg Vfwd=1.8 Vrev=2)
